#
# ********
# Packages
# ********
 &PACKAGES
 useGMRedi    = .TRUE.,
 useGrdchk    = .FALSE.,
 &
