#
# ********************************
# Off-line optimization parameters
# ********************************
 &OPTIM
 optimcycle=0,
 numiter=1000,
 nfunc=2,
#dfminFrac=0.4,
 iprint=10,
 nupdate=10,
 &end
#
 &M1QN3
 coldstart = .FALSE.,
 &end
#
